1
1
.ac dec 1000 10 10Meg
2
9
Net-(C1-Pad2)
V
5
Net-(C1-Pad2)
V
